[submodule "GEOS-Chem"]
	path = src/GEOS-Chem
	url = https://github.com/fetch4/geos-chem.git
[submodule "HEMCO"]
	path = src/HEMCO
	url = https://github.com/fetch4/hemco.git
[submodule "geos-chem-shared-docs"]
	path = docs/source/geos-chem-shared-docs
	url = https://github.com/geoschem/geos-chem-shared-docs.git
[submodule "Cloud-J"]
	path = src/Cloud-J
	url = https://github.com/fetch4/Cloud-J.git
[submodule "src/HETerogeneous-vectorized-or-Parallel"]
	path = src/HETP
	url = https://github.com/fetch4/HETerogeneous-vectorized-or-Parallel
